*MODEL INPUT FILE            B     1     1     1   999     0
*FILES              
MODEL          RICER048
FILEX          CRDA1201.WHX                                                                                 
FILEA          CRDA1201.WHA                                                                                 
FILET          CRDA1201.WHT                                                                                 
SPECIES        RICER048.SPE C:\DSSAT48\GENOTYPE\                                                            
ECOTYPE        RICER048.ECO C:\DSSAT48\GENOTYPE\                                                            
CULTIVAR       RICER048.CUL C:\DSSAT48\GENOTYPE\                                                            
PESTS          RICER048.PST C:\DSSAT48\PEST\                                                                
SOILS          CR.SOL                                                                                       
WEATHERW       DARO1201.WTH                                                                                 
OUTPUT         OVERVIEW
*SIMULATION CONTROL 
                   1     1     S 2012153  2150 DEFAULT SIMULATION CONTR 
                   Y     N     N     N     N     N     N     Y     M
                   M     M     E     R     S     C     R     1     P     S     2     D     0
                   R     N     R     N     A
                   N     Y     Y     1     Y     Y     Y     Y     Y     N     Y     N     Y
!AUTOMATIC MANAGEM  
                   -99     -99   40.  100.   30.   40.   10.
                 30.   50.  100. GS000 IR001  10.0 1.000
                 30.   50.   25. FE001 GS000
                100.     1   20.
                     0 2001001  100.    0.
*EXP.DETAILS        
  1CRDA1201 WH ESSAI VARIETE DAROU PAKA 2012                               
*TREATMENTS         
  1 1 1 0 F1 NE 4                  
*CULTIVARS          
   RI AR0002 NERICA 4        
*FIELDS             
   DARO0003 DARO1201   0.0  -99. DR000  -99. 100.0   -99 S      100. CR06002014-99.00 -99.0
    -15.8400001526   13.9600000381    27.000            1200.0   60.   3.0 -99.0 FH101   -99
*INITIAL CONDITIONS 
   PN    2012153   200    10  1.00  1.00 -99.0   -99 -9.00 -9.00  -99.  -99.
      5. 0.260   0.0   0.0
     15. 0.260   0.0   0.0
     30. 0.290   0.0   0.0
     45. 0.290   0.0   0.0
     60. 0.290   0.0   0.0
     80. 0.280   0.0   0.0
    100. 0.280   0.0   0.0
*PLANTING DETAILS   
   2012206 2012210  60.0  60.0     S     H   25.  -99.   2.0  -99.  -99. -99.0 -99.0 -99.0
*IRRIGATION         
   1.000    0.    0.    0. GS000 IR001   0.0
*FERTILIZERS        
   2012202 FE003 AP002    5.   30.   30.   30.  -99.  -99.   -99
   2012222 FE005 AP002    5.   46.    0.    0.  -99.  -99.   -99
   2012252 FE005 AP002    5.   23.    0.    0.  -99.  -99.   -99
*RESIDUES           
*CHEMICALS          
*TILLAGE            
   2012184 TI007  25.0
*ENVIRONMENT        
*HARVEST            
     12334 GS014     H   -99  100.    0.
     12334 GS014     H   -99  100.    0.
*SOIL               
 CR06002014              S      100.                                                   
 DAROUPAKAT  SENEGAL      13.800 -13.910 -99                                               
 G      0.13   6.0  0.60   76.  1.00  0.60 IB001 IB001 IB001 -99  
    5.       0.160 0.260 0.410 1.000 0.430  1.59 0.800  25.6  19.0   0.1 0.080  6.20-99.00-99.00-99.00
   15.       0.160 0.260 0.410 1.000 0.430  1.59 0.800  25.6  19.0   0.1 0.080  6.20-99.00-99.00-99.00
   30.       0.180 0.290 0.410 1.000 0.430  1.59 0.500  29.6  19.0   0.1 0.040  6.00-99.00-99.00-99.00
   45.       0.180 0.290 0.410 1.000 0.430  1.59 0.500  29.6  19.0   0.1 0.040  6.00-99.00-99.00-99.00
   60.       0.180 0.290 0.410 1.000 0.430  1.59 0.500  29.6  19.0   0.1 0.040  6.00-99.00-99.00-99.00
   80.       0.180 0.280 0.400 0.300 0.430  1.61 0.300  28.7  18.9   0.1 0.030  6.00-99.00-99.00-99.00
  100.       0.180 0.280 0.400 0.300 0.430  1.61 0.300  28.7  18.9   0.1 0.030  6.00-99.00-99.00-99.00
                    
    5.-99.00 -99.0 -99.0 -99.0 -99.0 -99.0 -99.0 -99.0 -99.0 -99.0-99.00 -99.0 -99.0 -99.0 -99.0 -99.0  -99.  -99.
   15.-99.00 -99.0 -99.0 -99.0 -99.0 -99.0 -99.0 -99.0 -99.0 -99.0-99.00 -99.0 -99.0 -99.0 -99.0 -99.0  -99.  -99.
   30.-99.00 -99.0 -99.0 -99.0 -99.0 -99.0 -99.0 -99.0 -99.0 -99.0-99.00 -99.0 -99.0 -99.0 -99.0 -99.0  -99.  -99.
   45.-99.00 -99.0 -99.0 -99.0 -99.0 -99.0 -99.0 -99.0 -99.0 -99.0-99.00 -99.0 -99.0 -99.0 -99.0 -99.0  -99.  -99.
   60.-99.00 -99.0 -99.0 -99.0 -99.0 -99.0 -99.0 -99.0 -99.0 -99.0-99.00 -99.0 -99.0 -99.0 -99.0 -99.0  -99.  -99.
   80.-99.00 -99.0 -99.0 -99.0 -99.0 -99.0 -99.0 -99.0 -99.0 -99.0-99.00 -99.0 -99.0 -99.0 -99.0 -99.0  -99.  -99.
  100.-99.00 -99.0 -99.0 -99.0 -99.0 -99.0 -99.0 -99.0 -99.0 -99.0-99.00 -99.0 -99.0 -99.0 -99.0 -99.0  -99.  -99.
                    
    5.-99.00-99.00-99.00-99.00
   15.-99.00-99.00-99.00-99.00
   30.-99.00-99.00-99.00-99.00
   45.-99.00-99.00-99.00-99.00
   60.-99.00-99.00-99.00-99.00
   80.-99.00-99.00-99.00-99.00
  100.-99.00-99.00-99.00-99.00
*CULTIVAR           
AR0002 NERICA 4         IB0001 800.0 300.0 850.0  13.0  75.0 0.030  1.30 90.00  34.0  18.0  20.0
