*SOILS: General DSSAT Soil Input File

*CR01002012  TAFFA GUEYE LS       100  SINT12
@SITE        COUNTRY          LAT     LONG SCS FAMILY
 SINTHIOU    SENEGAL         13.83  -13.91 -99
@ SCOM  SALB  SLU1  SLDR  SLRO  SLNF  SLPF  SMHB  SMPX  SMKE
     G   .13     6    .8    76     1    .9 IB001 IB001 IB001
@  SLB  SLMH  SLLL  SDUL  SSAT  SRGF  SSKS  SBDM  SLOC  SLCL  SLSI  SLCF  SLNI  SLHW  SLHB  SCEC  SADC
    10   -99  .065  .132  .401     1  6.11  1.52  .484   7.1     5     0   .05   5.9   -99    40   -99
    20   -99  .069  .141  .374     1  6.11   1.6  .273  11.1   3.8     0   .03   5.5   -99    20   -99
   100   -99  .044  .099  .407  .601    21  1.51  .239   2.2   3.2     0   .01   5.2   -99    20   -99

*CR02002012  Valet 1984  S        100  NIORO1
@SITE        COUNTRY          LAT     LONG SCS FAMILY
 NDAMA       SENEGAL         13.82  -15.68 dunaire rouge
@ SCOM  SALB  SLU1  SLDR  SLRO  SLNF  SLPF  SMHB  SMPX  SMKE
     R   .14     6   .75    76     1    .6 IB001 IB001 IB001
@  SLB  SLMH  SLLL  SDUL  SSAT  SRGF  SSKS  SBDM  SLOC  SLCL  SLSI  SLCF  SLNI  SLHW  SLHB  SCEC  SADC
    20   -99  .051  .099  .402     1    21  1.52  .211   3.3   3.4     0   .02   4.5   -99   -99   -99
    50   -99  .065  .112  .386  .301    21  1.57  .145     7   3.8     0   .01   4.6   -99   -99   -99
   100   -99  .081  .136  .375  .223  6.11   1.6    .1    10     6     0   .01   -99   -99   -99   -99

*CR01002013  THESE PMK   LS       100  SINTBIOM13
@SITE        COUNTRY          LAT     LONG SCS FAMILY
 SINTHIOU    SENEGAL         13.83  -13.91 -99
@ SCOM  SALB  SLU1  SLDR  SLRO  SLNF  SLPF  SMHB  SMPX  SMKE
     G   .13     6    .5    76     1    .9 IB001 IB001 IB001
@  SLB  SLMH  SLLL  SDUL  SSAT  SRGF  SSKS  SBDM  SLOC  SLCL  SLSI  SLCF  SLNI  SLHW  SLHB  SCEC  SADC
    10   -99  .065  .132  .401     1  6.11  1.52  .484   7.1     5     0   .05   5.9   -99   -99   -99
    20   -99  .069  .141  .374     1  6.11   1.6  .373  11.1   3.8     0   .03   5.5   -99   -99   -99
   100   -99  .044  .099  .407  .301    21  1.51  .339   2.2   3.2     0   .03   5.2   -99   -99   -99

*CR02002013  THESE PMK   S        100  SINTVAR13
@SITE        COUNTRY          LAT     LONG SCS FAMILY
 SINTHIOU    SENEGAL         13.83  -13.91 -99
@ SCOM  SALB  SLU1  SLDR  SLRO  SLNF  SLPF  SMHB  SMPX  SMKE
     G   .13     6    .4    76     1    .9 IB001 IB001 IB001
@  SLB  SLMH  SLLL  SDUL  SSAT  SRGF  SSKS  SBDM  SLOC  SLCL  SLSI  SLCF  SLNI  SLHW  SLHB  SCEC  SADC
    10   -99  .066  .127  .395     1    21  1.54  .487   6.4   4.6     0   .04  55.5   -99   -99   -99
    20   -99  .087  .141  .374     1  6.11   1.6  .356  10.8     5     0   .03  55.2   -99   -99   -99
   100   -99  .049  .097  .403  .301    21  1.52  .204   3.4   4.7     0  .025   5.3   -99   -99   -99

*CR03002013  THESE PMK   LS       100  KOLDABIOM13
@SITE        COUNTRY          LAT     LONG SCS FAMILY
 CRZKOLDA    SENEGAL         12.86  -14.95 -99
@ SCOM  SALB  SLU1  SLDR  SLRO  SLNF  SLPF  SMHB  SMPX  SMKE
     G   .13     6   .75    76     1    .7 IB001 IB001 IB001
@  SLB  SLMH  SLLL  SDUL  SSAT  SRGF  SSKS  SBDM  SLOC  SLCL  SLSI  SLCF  SLNI  SLHW  SLHB  SCEC  SADC
    10   -99  .074  .135  .404     1  6.11  1.51  .545   6.6   6.2     0   .03   6.1   -99   -99   -99
    20   -99  .091  .152  .387     1  6.11  1.56   .47  10.5   5.5     0   .02   5.6   -99   -99   -99
   100   -99   .06  .116  .402  .301    21  1.52   .35   4.8   6.8     0   .01   5.3   -99   -99   -99

*CR04002013  THESE PMK   S        100  KOLDAVAR13
@SITE        COUNTRY          LAT     LONG SCS FAMILY
 CRZKOLDA    SENEGAL         12.86  -14.95 -99
@ SCOM  SALB  SLU1  SLDR  SLRO  SLNF  SLPF  SMHB  SMPX  SMKE
     G   .13     6    .7    76     1    .8 IB001 IB001 IB001
@  SLB  SLMH  SLLL  SDUL  SSAT  SRGF  SSKS  SBDM  SLOC  SLCL  SLSI  SLCF  SLNI  SLHW  SLHB  SCEC  SADC
    10   -99  .068  .129  .411     1    21  1.49  .546   5.5     6     0   .04     6   -99   -99   -99
    20   -99  .086  .147   .39     1  6.11  1.55  .477   9.5     6     0   .04   5.8   -99   -99   -99
   100   -99   .06  .116  .406  .301    21  1.51  .353   4.8   6.5     0   .03   5.7   -99   -99   -99

*CR05002013  THESE PMK   LS       100  SEFABIOM13
@SITE        COUNTRY          LAT     LONG SCS FAMILY
 SEFA        SENEGAL         12.85   -15.6 -99
@ SCOM  SALB  SLU1  SLDR  SLRO  SLNF  SLPF  SMHB  SMPX  SMKE
     G   .13     6    .4    76     1    .9 IB001 IB001 IB001
@  SLB  SLMH  SLLL  SDUL  SSAT  SRGF  SSKS  SBDM  SLOC  SLCL  SLSI  SLCF  SLNI  SLHW  SLHB  SCEC  SADC
    10   -99  .093   .15  .383     1  6.11  1.57   .87  10.8   3.8     0   .05   8.7   -99   -99   -99
    20   -99  .134  .199  .373     1  2.59   1.6  .707  19.5   6.2     0   .05     8   -99   -99   -99
   100   -99  .058  .105  .403  .301    21  1.52   .49   4.8     3     0   .04   7.3   -99   -99   -99

*CR06002013  THESE PMK   LS       100  SEFAVAR13
@SITE        COUNTRY          LAT     LONG SCS FAMILY
 SEFA        SENEGAL         12.85   -15.6 -99
@ SCOM  SALB  SLU1  SLDR  SLRO  SLNF  SLPF  SMHB  SMPX  SMKE
     G   .13     6    .4    76     1    .9 IB001 IB001 IB001
@  SLB  SLMH  SLLL  SDUL  SSAT  SRGF  SSKS  SBDM  SLOC  SLCL  SLSI  SLCF  SLNI  SLHW  SLHB  SCEC  SADC
    10   -99  .089   .15  .387     1  6.11  1.56  .543  10.2   6.2     0   .05   5.8   -99   -99   -99
    20   -99  .127   .19  .369     1  2.59  1.61  .536  17.8   5.2     0   .05   5.3   -99   -99   -99
   100   -99  .062  .115  .406  .301    21  1.51   .36   5.2     5     0   .07   5.5   -99   -99   -99

*CR01002014  THESE PMK   S        100  SINTBIOM114
@SITE        COUNTRY          LAT     LONG SCS FAMILY
 SINTHIOU    SENEGAL         13.83  -13.91 -99
@ SCOM  SALB  SLU1  SLDR  SLRO  SLNF  SLPF  SMHB  SMPX  SMKE
     G   .13     6    .4    76     1    .9 IB001 IB001 IB001
@  SLB  SLMH  SLLL  SDUL  SSAT  SRGF  SSKS  SBDM  SLOC  SLCL  SLSI  SLCF  SLNI  SLHW  SLHB  SCEC  SADC
    10   -99  .061  .114  .412     1    21  1.49  .445   4.6     4     0   .04   5.8   -99   -99   -99
    20   -99  .077  .129  .381     1  6.11  1.58  .256   8.8   4.4     0   .02   5.7   -99   -99   -99
   100   -99  .061  .115  .392  .301  6.11  1.55  .223   5.7   6.8     0   .05   5.5   -99   -99   -99

*CR02002014  THESE PMK   S        100  SINTBIOM214
@SITE        COUNTRY          LAT     LONG SCS FAMILY
 SINTHIOU    SENEGAL         13.83  -13.91 -99
@ SCOM  SALB  SLU1  SLDR  SLRO  SLNF  SLPF  SMHB  SMPX  SMKE
     G   .13     6    .4    76     1    .9 IB001 IB001 IB001
@  SLB  SLMH  SLLL  SDUL  SSAT  SRGF  SSKS  SBDM  SLOC  SLCL  SLSI  SLCF  SLNI  SLHW  SLHB  SCEC  SADC
    10   -99  .059  .111  .409     1    21   1.5  .356   4.7   4.6     0   .03   5.6   -99   -99   -99
    20   -99  .077  .131  .378     1  6.11  1.59  .245   8.8   5.7     0   .03   5.4   -99   -99   -99
   100   -99   .06  .109  .399  .301    21  1.53  .245   5.4   4.4     0   .02   5.5   -99   -99   -99

*CR03002014  THESE PMK   S        100  SINTVAR14
@SITE        COUNTRY          LAT     LONG SCS FAMILY
 SINTHIOU    SENEGAL         13.83  -13.91 -99
@ SCOM  SALB  SLU1  SLDR  SLRO  SLNF  SLPF  SMHB  SMPX  SMKE
     G   .13     6    .4    76     1    .9 IB001 IB001 IB001
@  SLB  SLMH  SLLL  SDUL  SSAT  SRGF  SSKS  SBDM  SLOC  SLCL  SLSI  SLCF  SLNI  SLHW  SLHB  SCEC  SADC
    10   -99  .055  .111  .412     1    21  1.49  .415   3.5     6     0   .04   5.7   -99   -99   -99
    20   -99  .102  .163  .363     1  2.59  1.63  .249  13.8   7.5     0   .04   5.6   -99   -99   -99
   100   -99  .056  .108    .4  .301    21  1.53  .221   4.8   6.2     0   .03   5.7   -99   -99   -99

*CR04002014  THESE PMK   LS       100  KOLDABIOM14
@SITE        COUNTRY          LAT     LONG SCS FAMILY
 CRZKOLDA    SENEGAL         12.86  -14.95 -99
@ SCOM  SALB  SLU1  SLDR  SLRO  SLNF  SLPF  SMHB  SMPX  SMKE
     G   .13     6   .75    76     1   .75 IB001 IB001 IB001
@  SLB  SLMH  SLLL  SDUL  SSAT  SRGF  SSKS  SBDM  SLOC  SLCL  SLSI  SLCF  SLNI  SLHW  SLHB  SCEC  SADC
    10   -99  .086   .15  .393     1  6.11  1.54  .534   9.1   6.9     0   .04     6   -99   -99   -99
    20   -99  .091  .152  .377     1  6.11  1.59  .351    11   7.6     0   .02     6   -99   -99   -99
   100   -99  .048  .119  .413  .301    21  1.49  .323   2.6   5.2     0   .02     6   -99   -99   -99

*CR05002014  THESE PMK   LS       100  KOLDAVAR14
@SITE        COUNTRY          LAT     LONG SCS FAMILY
 CRZKOLDA    SENEGAL         12.86  -14.95 -99
@ SCOM  SALB  SLU1  SLDR  SLRO  SLNF  SLPF  SMHB  SMPX  SMKE
     G   .13     6   .75    76     1    .9 IB001 IB001 IB001
@  SLB  SLMH  SLLL  SDUL  SSAT  SRGF  SSKS  SBDM  SLOC  SLCL  SLSI  SLCF  SLNI  SLHW  SLHB  SCEC  SADC
    10   -99  .082  .145  .393     1  6.11  1.54  .523   8.3   7.2     0   .05   5.9   -99   -99   -99
    20   -99  .112  .175  .369     1  2.59  1.61  .378  15.1   6.6     0   .03   5.7   -99   -99   -99
   100   -99  .065  .122  .392  .301  6.11  1.55  .306   6.2     7     0   .03   5.2   -99   -99   -99

*CR06002014  THESE PMK   S        100  DAROUPAKAT14
@SITE        COUNTRY          LAT     LONG SCS FAMILY
 DAROUPAKAT  SENEGAL         13.96  -15.85 -99
@ SCOM  SALB  SLU1  SLDR  SLRO  SLNF  SLPF  SMHB  SMPX  SMKE
     G   .13     6    .6    76     1    .6 IB001 IB001 IB001
@  SLB  SLMH  SLLL  SDUL  SSAT  SRGF  SSKS  SBDM  SLOC  SLCL  SLSI  SLCF  SLNI  SLHW  SLHB  SCEC  SADC
    10   -99  .063  .111  .399     1    21  1.53  .301   5.7   3.2     0   .01   6.2   -99   -99   -99
    20   -99  .066  .113  .399     1    21  1.53  .251   6.7   2.6     0   .01   7.7   -99   -99   -99
   100   -99  .057  .112  .399  .301    21  1.53  .273   4.8   6.6     0   .01     7   -99   -99   -99

*CR07002014  THESE PMK   LS       100  SEFAP314
@SITE        COUNTRY          LAT     LONG SCS FAMILY
 SEFA        SENEGAL         12.85   -15.6 -99
@ SCOM  SALB  SLU1  SLDR  SLRO  SLNF  SLPF  SMHB  SMPX  SMKE
     G   .13     6    .4    76     1    .9 IB001 IB001 IB001
@  SLB  SLMH  SLLL  SDUL  SSAT  SRGF  SSKS  SBDM  SLOC  SLCL  SLSI  SLCF  SLNI  SLHW  SLHB  SCEC  SADC
    10   -99  .087  .151  .406     1  6.11   1.5  .747   8.2   4.5     0   .07   5.9   -99   -99   -99
    20   -99  .119  .175  .365     1  2.59  1.62  .477    16   1.4     0   .04   4.9   -99   -99   -99
   100   -99   .06  .114  .403  .301    21  1.52  .297   5.2   5.8     0   .03   5.1   -99   -99   -99

*CR08002014  THESE PMK   S         99  SEFAP414
@SITE        COUNTRY          LAT     LONG SCS FAMILY
 SEFA        SENEGAL         12.85   -15.6 -99
@ SCOM  SALB  SLU1  SLDR  SLRO  SLNF  SLPF  SMHB  SMPX  SMKE
     G   .13     6    .4    76     1    .9 IB001 IB001 IB001
@  SLB  SLMH  SLLL  SDUL  SSAT  SRGF  SSKS  SBDM  SLOC  SLCL  SLSI  SLCF  SLNI  SLHW  SLHB  SCEC  SADC
    10   -99  .081  .149  .426     1    21  1.44  .927     6   4.8     0   .09   6.2   -99   -99   -99
    20   -99  .067  .132  .411     1  6.11  1.49  .588     5   8.2     0   .08     6   -99   -99   -99
    99   -99  .103  .161  .366  .301  2.59  1.62   .36  13.5   4.5     0   .05   5.6   -99   -99   -99

*CR09002014  THESE PMK   SL        99  SEFA SOUKOUTOTO14
@SITE        COUNTRY          LAT     LONG SCS FAMILY
 SEFA        SENEGAL         12.85   -15.6 -99
@ SCOM  SALB  SLU1  SLDR  SLRO  SLNF  SLPF  SMHB  SMPX  SMKE
     G   .13     6    .4    76     1    .9 IB001 IB001 IB001
@  SLB  SLMH  SLLL  SDUL  SSAT  SRGF  SSKS  SBDM  SLOC  SLCL  SLSI  SLCF  SLNI  SLHW  SLHB  SCEC  SADC
    10   -99  .112  .178  .378     1  2.59  1.58  .607  13.8   5.9     0   .06   5.9   -99   -99   -99
    20   -99  .125  .186  .366     1  2.59  1.62   .39  17.7   4.6     0   .04   5.3   -99   -99   -99
    99   -99  .056  .104  .403  .301    21  1.52  .273   4.6   3.1     0   .02   5.3   -99   -99   -99

*CR04002012  THESE PMK   S        100  KOLDAVAR12
@SITE        COUNTRY          LAT     LONG SCS FAMILY
 CRZKOLDA    SENEGAL         12.86  -14.95 -99
@ SCOM  SALB  SLU1  SLDR  SLRO  SLNF  SLPF  SMHB  SMPX  SMKE
     G   .13     6    .6    76     1   .85 IB001 IB001 IB001
@  SLB  SLMH  SLLL  SDUL  SSAT  SRGF  SSKS  SBDM  SLOC  SLCL  SLSI  SLCF  SLNI  SLHW  SLHB  SCEC  SADC
    10   -99  .068  .129  .411     1    21  1.49  .546   5.5     6     0   .05     6   -99   -99   -99
    20   -99  .086  .147   .39     1  6.11  1.55  .477   9.5     6     0   .06   5.8   -99   -99   -99
   100   -99   .06  .116  .406  .301    21  1.51  .353   4.8   6.5     0   .04   5.7   -99   -99   -99

*CR05002012  THESE PMK   LS       100  SEFAVAR12
@SITE        COUNTRY          LAT     LONG SCS FAMILY
 SEFA        SENEGAL         12.85   -15.6 -99
@ SCOM  SALB  SLU1  SLDR  SLRO  SLNF  SLPF  SMHB  SMPX  SMKE
     G   .13     6    .6    84     1    .8 IB001 IB001 IB001
@  SLB  SLMH  SLLL  SDUL  SSAT  SRGF  SSKS  SBDM  SLOC  SLCL  SLSI  SLCF  SLNI  SLHW  SLHB  SCEC  SADC
    10   -99  .094  .152  .386     1  6.11  1.56  .507  10.8   3.8     0   .04   5.7   -99   -99   -99
    20   -99  .137  .205  .379     1  2.59  1.58  .507  19.5   6.2     0   .04   5.2   -99   -99   -99
   100   -99   .05  .125  .403  .351    21  1.52   .39   4.8     5     0   .02   5.3   -99   -99   -99

*CR07002013  THESE PMK     LS     100  SINTBIOM13B2
@SITE        COUNTRY          LAT     LONG SCS FAMILY
 SINTHIOU    SENEGAL         13.83  -13.91 -99
@ SCOM  SALB  SLU1  SLDR  SLRO  SLNF  SLPF  SMHB  SMPX  SMKE
     G   .13     6    .4    76     1    .8 IB001 IB001 IB001
@  SLB  SLMH  SLLL  SDUL  SSAT  SRGF  SSKS  SBDM  SLOC  SLCL  SLSI  SLCF  SLNI  SLHW  SLHB  SCEC  SADC
    10   -99  .075  .122  .401     1  6.11  1.52  .484   7.1     5     0   .04   5.9   -99   -99   -99
    20   -99  .076  .121  .373     1  6.11   1.6  .373     8   4.8     0   .01   5.5   -99   -99   -99
    80   -99  .046  .094  .406  .301    21  1.51  .339   2.2   3.2     0   .01   5.2   -99   -99   -99
