*MODEL INPUT FILE            B     1     1     1   999     0
*FILES              
MODEL          RICER048
FILEX          CRDA1201.WHX                                                                                 
FILEA          CRDA1201.WHA                                                                                 
FILET          CRDA1201.WHT                                                                                 
SPECIES        RICER048.SPE C:\DSSAT48\GENOTYPE\                                                            
ECOTYPE        RICER048.ECO C:\DSSAT48\GENOTYPE\                                                            
CULTIVAR       RICER048.CUL C:\DSSAT48\GENOTYPE\                                                            
PESTS          RICER048.PST C:\DSSAT48\PEST\                                                                
SOILS          CR.SOL                                                                                       
WEATHERW       DARO1201.WTH                                                                                 
OUTPUT         OVERVIEW
*SIMULATION CONTROL 
                   1     1     S 2012153  2150 DEFAULT SIMULATION CONTR 
                   Y     N     N     N     N     N     N     Y     M
                   M     M     E     R     S     C     R     1     P     S     2     D     0
                   R     N     R     N     A
                   N     Y     Y     1     Y     Y     Y     Y     Y     N     Y     N     Y
!AUTOMATIC MANAGEM  
                   -99     -99   40.  100.   30.   40.   10.
                 30.   50.  100. GS000 IR001  10.0 1.000
                 30.   50.   25. FE001 GS000
                100.     1   20.
                     0 2001001  100.    0.
*EXP.DETAILS        
  1CRDA1201 WH ESSAI VARIETE DAROU PAKA 2012                               
*TREATMENTS         
  1 1 1 0 F1 NE 4                  
*CULTIVARS          
   RI AR0002 NERICA 4        
*FIELDS             
   DARO0003 DARO1201   0.0  -99. DR000  -99. 100.0   -99 S      100. CR06002014-99.00 -99.0
    -15.8400001526   13.9600000381    27.000            1200.0   60.   3.0 -99.0 FH101   -99
*INITIAL CONDITIONS 
   PN    2012153   200    10  1.00  1.00 -99.0   -99 -9.00 -9.00  -99.  -99.
      5. 0.111   0.0   0.0
     15. 0.112   0.0   0.0
     20. 0.113   0.0   0.0
     47. 0.112   0.0   0.0
     73. 0.112   0.0   0.0
    100. 0.112   0.0   0.0
*PLANTING DETAILS   
   2012220 2012224  60.0  60.0     S     H   25.  -99.   2.0  -99.  -99. -99.0 -99.0 -99.0
*IRRIGATION         
   1.000    0.    0.    0. GS000 IR001   0.0
*FERTILIZERS        
   2012202 FE003 AP002    5.   30.   30.   30.  -99.  -99.   -99
   2012222 FE005 AP002    5.   46.    0.    0.  -99.  -99.   -99
   2012252 FE005 AP002    5.   23.    0.    0.  -99.  -99.   -99
*RESIDUES           
*CHEMICALS          
*TILLAGE            
   2012184 TI007  25.0
*ENVIRONMENT        
*HARVEST            
     12334 GS014     H   -99  100.    0.
     12334 GS014     H   -99  100.    0.
*SOIL               
 CR06002014  THESE PMK   S      100.   DAROUPAKAT14                                    
 DAROUPAKAT  SENEGAL      13.900 -15.850 -99                                               
 G      0.13   6.0  0.60   76.  1.00  0.60 IB001 IB001 IB001 -99  
    5.       0.063 0.111 0.399 1.000  21.0  1.53 0.301   5.7   3.2   0.0 0.010  6.20-99.00-99.00-99.00
   15.       0.064 0.112 0.399 1.000  21.0  1.53 0.276   6.2   2.9   0.0 0.010  6.95-99.00-99.00-99.00
   20.       0.066 0.113 0.399 1.000  21.0  1.53 0.251   6.7   2.6   0.0 0.010  7.70-99.00-99.00-99.00
   47.       0.057 0.112 0.399 0.301  21.0  1.53 0.273   4.8   6.6   0.0 0.010  7.00-99.00-99.00-99.00
   73.       0.057 0.112 0.399 0.301  21.0  1.53 0.273   4.8   6.6   0.0 0.010  7.00-99.00-99.00-99.00
  100.       0.057 0.112 0.399 0.301  21.0  1.53 0.273   4.8   6.6   0.0 0.010  7.00-99.00-99.00-99.00
                    
    5.-99.00 -99.0 -99.0 -99.0 -99.0 -99.0 -99.0 -99.0 -99.0 -99.0-99.00 -99.0 -99.0 -99.0 -99.0 -99.0  -99.  -99.
   15.-99.00 -99.0 -99.0 -99.0 -99.0 -99.0 -99.0 -99.0 -99.0 -99.0-99.00 -99.0 -99.0 -99.0 -99.0 -99.0  -99.  -99.
   20.-99.00 -99.0 -99.0 -99.0 -99.0 -99.0 -99.0 -99.0 -99.0 -99.0-99.00 -99.0 -99.0 -99.0 -99.0 -99.0  -99.  -99.
   47.-99.00 -99.0 -99.0 -99.0 -99.0 -99.0 -99.0 -99.0 -99.0 -99.0-99.00 -99.0 -99.0 -99.0 -99.0 -99.0  -99.  -99.
   73.-99.00 -99.0 -99.0 -99.0 -99.0 -99.0 -99.0 -99.0 -99.0 -99.0-99.00 -99.0 -99.0 -99.0 -99.0 -99.0  -99.  -99.
  100.-99.00 -99.0 -99.0 -99.0 -99.0 -99.0 -99.0 -99.0 -99.0 -99.0-99.00 -99.0 -99.0 -99.0 -99.0 -99.0  -99.  -99.
                    
    5.-99.00-99.00-99.00-99.00
   15.-99.00-99.00-99.00-99.00
   20.-99.00-99.00-99.00-99.00
   47.-99.00-99.00-99.00-99.00
   73.-99.00-99.00-99.00-99.00
  100.-99.00-99.00-99.00-99.00
*CULTIVAR           
AR0002 NERICA 4         IB0001 568.8 122.6 442.1  12.6  67.0 3.022  0.99 69.60  35.0  15.0  15.0
